Test_Network/condensed/network_10/Lines.txt
New Line.LINE1118 Bus1=1116 Bus2=1119 phases=3 Linecode=25_SAC_XC Length=6.4739 Units=m
New Line.LINE1119 Bus1=1116 Bus2=1120 phases=3 Linecode=25_SAC_XC Length=9.0685 Units=m
New Line.LINE1120 Bus1=1116 Bus2=1121 phases=3 Linecode=25_SAC_XC Length=9.0685 Units=m
New Line.LINE1121 Bus1=1116 Bus2=1122 phases=3 Linecode=25_SAC_XC Length=9.0685 Units=m
New Line.LINE1122 Bus1=1116 Bus2=1123 phases=3 Linecode=25_SAC_XC Length=9.0685 Units=m
New Line.LINE1123 Bus1=1116 Bus2=1124 phases=3 Linecode=25_SAC_XC Length=9.0685 Units=m
New Line.LINE1124 Bus1=1116 Bus2=1125 phases=3 Linecode=25_SAC_XC Length=9.0685 Units=m
New Line.LINE1125 Bus1=1116 Bus2=1126 phases=3 Linecode=25_SAC_XC Length=9.0685 Units=m
New Line.LINE1126 Bus1=1116 Bus2=1127 phases=3 Linecode=25_SAC_XC Length=9.0685 Units=m
New Line.LINE1127 Bus1=1116 Bus2=1128 phases=3 Linecode=25_SAC_XC Length=9.0685 Units=m
New Line.LINE1128 Bus1=1116 Bus2=1129 phases=3 Linecode=25_SAC_XC Length=9.0685 Units=m
New Line.LINE1129 Bus1=1116 Bus2=1130 phases=3 Linecode=25_SAC_XC Length=9.0685 Units=m
New Line.LINE1131 Bus1=1120 Bus2=1132 phases=3 Linecode=25_SAC_XC Length=10.4913 Units=m
New Line.LINE1240 Bus1=1235 Bus2=1241 phases=3 Linecode=25_SAC_XC Length=36.3848 Units=m
New Line.LINE1241 Bus1=1235 Bus2=1242 phases=3 Linecode=25_SAC_XC Length=36.3848 Units=m
New Line.LINE1242 Bus1=1235 Bus2=1243 phases=3 Linecode=25_SAC_XC Length=36.3848 Units=m
New Line.LINE1243 Bus1=1235 Bus2=1244 phases=3 Linecode=25_SAC_XC Length=36.3848 Units=m
New Line.LINE1244 Bus1=1235 Bus2=1245 phases=3 Linecode=25_SAC_XC Length=36.3848 Units=m
New Line.LINE1245 Bus1=1235 Bus2=1246 phases=3 Linecode=25_SAC_XC Length=36.3848 Units=m
New Line.LINE1246 Bus1=1235 Bus2=1247 phases=3 Linecode=25_SAC_XC Length=36.3848 Units=m
New Line.LINE1247 Bus1=1235 Bus2=1248 phases=3 Linecode=25_SAC_XC Length=15.8156 Units=m
New Line.LINE1Cmpd_0 Bus1=11 Bus2=128 phases=3 Linecode=4c_.25 Length=7.735046 Units=m
New Line.LINE1Cmpd_1 Bus1=1192 Bus2=1235 phases=3 Linecode=3c_300_ASN Length=31.4648 Units=m
New Line.LINE1Cmpd_2 Bus1=146 Bus2=1139 phases=3 Linecode=3c_300_SAC_XC Length=20.430236 Units=m
New Line.LINE1Cmpd_3 Bus1=146 Bus2=1116 phases=3 Linecode=3c_300_SAC_XC Length=47.323946 Units=m
New Line.LINE1Cmpd_4 Bus1=1151 Bus2=1192 phases=3 Linecode=3c_300_SAC_XC Length=8.09033 Units=m
New Line.LINE1Cmpd_5 Bus1=128 Bus2=146 phases=3 Linecode=3c_240_SAC_XC Length=13.194035 Units=m
New Line.LINE1Cmpd_6 Bus1=1139 Bus2=1151 phases=3 Linecode=4c_300_SAC Length=5.3426 Units=m
New Line.LINE22 Bus1=11 Bus2=23 phases=3 Linecode=25_SAC_XC Length=14.093 Units=m
New Line.LINE2418 Bus1=2416 Bus2=2419 phases=3 Linecode=25_SAC_XC Length=10.6834 Units=m
New Line.LINE2443 Bus1=2442 Bus2=2444 phases=3 Linecode=25_SAC_XC Length=10.2776 Units=m
New Line.LINE2Cmpd_0 Bus1=224 Bus2=231 phases=3 Linecode=3c_300_SAC_XC Length=3.99991 Units=m
New Line.LINE2Cmpd_1 Bus1=2192 Bus2=2381 phases=3 Linecode=3c_300_SAC_XC Length=20.28755 Units=m
New Line.LINE2Cmpd_2 Bus1=246 Bus2=2192 phases=3 Linecode=4c_.5 Length=82.697765 Units=m
New Line.LINE2Cmpd_3 Bus1=11 Bus2=224 phases=3 Linecode=3c_300_SAC_XC Length=27.10283 Units=m
New Line.LINE2Cmpd_4 Bus1=286 Bus2=2143 phases=3 Linecode=3c_.5 Length=44.33839 Units=m
New Line.LINE2Cmpd_5 Bus1=248 Bus2=268 phases=3 Linecode=4c_300_SAC Length=7.18289 Units=m
New Line.LINE2Cmpd_6 Bus1=2419 Bus2=2442 phases=3 Linecode=4c_95_SAC_XC Length=20.89809 Units=m
New Line.LINE2Cmpd_7 Bus1=2381 Bus2=2416 phases=3 Linecode=25_SAC_XC Length=31.21639 Units=m
New Line.LINE2Cmpd_8 Bus1=224 Bus2=248 phases=3 Linecode=4c_.5_SAC Length=2.653841 Units=m
New Line.LINE2Cmpd_9 Bus1=268 Bus2=286 phases=3 Linecode=4c_.5 Length=19.66712 Units=m
New Line.LINE2Cmpd_10 Bus1=231 Bus2=246 phases=3 Linecode=4c_300_SAC Length=5.62711 Units=m
New Line.LINE3150 Bus1=3149 Bus2=3151 phases=3 Linecode=3c_300_SAC_XC Length=3.3013 Units=m
New Line.LINE3332 Bus1=3331 Bus2=3333 phases=3 Linecode=4c_.1 Length=6.9227 Units=m
New Line.LINE3333 Bus1=3331 Bus2=3334 phases=3 Linecode=4c_.1 Length=3.9669 Units=m
New Line.LINE3334 Bus1=3333 Bus2=3335 phases=3 Linecode=25_SAC_XC Length=4.0386 Units=m
New Line.LINE3335 Bus1=3333 Bus2=3336 phases=3 Linecode=4c_.1 Length=2.8461 Units=m
New Line.LINE3336 Bus1=3334 Bus2=3337 phases=3 Linecode=25_SAC_XC Length=3.5239 Units=m
New Line.LINE3337 Bus1=3334 Bus2=3338 phases=3 Linecode=4c_.1 Length=4.5829 Units=m
New Line.LINE3339 Bus1=3336 Bus2=3340 phases=3 Linecode=4c_.1 Length=1.9074 Units=m
New Line.LINE3340 Bus1=3336 Bus2=3341 phases=3 Linecode=4c_.1 Length=0.70447 Units=m
New Line.LINE3341 Bus1=3336 Bus2=3342 phases=3 Linecode=4c_.1 Length=2.422 Units=m
New Line.LINE3342 Bus1=3338 Bus2=3343 phases=3 Linecode=25_SAC_XC Length=6.3521 Units=m
New Line.LINE3345 Bus1=3340 Bus2=3346 phases=3 Linecode=25_SAC_XC Length=5.882 Units=m
New Line.LINE3346 Bus1=3340 Bus2=3347 phases=3 Linecode=4c_.1 Length=0.93381 Units=m
New Line.LINE3347 Bus1=3341 Bus2=3348 phases=3 Linecode=25_SAC_XC Length=3.3966 Units=m
New Line.LINE3348 Bus1=3342 Bus2=3349 phases=3 Linecode=25_SAC_XC Length=2.9265 Units=m
New Line.LINE3352 Bus1=3347 Bus2=3353 phases=3 Linecode=4c_.1 Length=2.023 Units=m
New Line.LINE3353 Bus1=3347 Bus2=3354 phases=3 Linecode=4c_.1 Length=1.552 Units=m
New Line.LINE3356 Bus1=3353 Bus2=3357 phases=3 Linecode=25_SAC_XC Length=6.3968 Units=m
New Line.LINE3357 Bus1=3353 Bus2=3358 phases=3 Linecode=4c_.1 Length=2.4848 Units=m
New Line.LINE3358 Bus1=3354 Bus2=3359 phases=3 Linecode=25_SAC_XC Length=3.2697 Units=m
New Line.LINE3359 Bus1=3354 Bus2=3360 phases=3 Linecode=4c_.1 Length=6.0833 Units=m
New Line.LINE3362 Bus1=3358 Bus2=3363 phases=3 Linecode=25_SAC_XC Length=3.7843 Units=m
New Line.LINE3363 Bus1=3358 Bus2=3364 phases=3 Linecode=4c_.1 Length=0.47003 Units=m
New Line.LINE3364 Bus1=3360 Bus2=3365 phases=3 Linecode=25_SAC_XC Length=3.3138 Units=m
New Line.LINE3367 Bus1=3364 Bus2=3368 phases=3 Linecode=25_SAC_XC Length=6.9114 Units=m
New Line.LINE3388 Bus1=3387 Bus2=3389 phases=3 Linecode=4c_.1 Length=2.5691 Units=m
New Line.LINE3389 Bus1=3387 Bus2=3390 phases=3 Linecode=4c_.1 Length=5.709 Units=m
New Line.LINE3390 Bus1=3389 Bus2=3391 phases=3 Linecode=25_SAC_XC Length=2.9421 Units=m
New Line.LINE3391 Bus1=3389 Bus2=3392 phases=3 Linecode=4c_.1 Length=3.2644 Units=m
New Line.LINE3392 Bus1=3390 Bus2=3393 phases=3 Linecode=25_SAC_XC Length=2.5641 Units=m
New Line.LINE3394 Bus1=3392 Bus2=3395 phases=3 Linecode=4c_.1 Length=3.689 Units=m
New Line.LINE3395 Bus1=3392 Bus2=3396 phases=3 Linecode=4c_.1 Length=0.49321 Units=m
New Line.LINE3396 Bus1=3395 Bus2=3397 phases=3 Linecode=25_SAC_XC Length=4.1916 Units=m
New Line.LINE3400 Bus1=3396 Bus2=3401 phases=3 Linecode=25_SAC_XC Length=5.688 Units=m
New Line.LINE3Cmpd_0 Bus1=385 Bus2=3115 phases=3 Linecode=4c_300_SAC Length=11.37948 Units=m
New Line.LINE3Cmpd_1 Bus1=3151 Bus2=3252 phases=3 Linecode=4c_.5_AS Length=91.422019 Units=m
New Line.LINE3Cmpd_2 Bus1=3292 Bus2=3331 phases=3 Linecode=4c_.1 Length=10.50641 Units=m
New Line.LINE3Cmpd_3 Bus1=348 Bus2=385 phases=3 Linecode=4c_.5 Length=120.804201 Units=m
New Line.LINE3Cmpd_4 Bus1=3115 Bus2=3149 phases=3 Linecode=4c_.5_AS Length=22.13542 Units=m
New Line.LINE3Cmpd_5 Bus1=3360 Bus2=3387 phases=3 Linecode=4c_.1 Length=6.60974 Units=m
New Line.LINE3Cmpd_6 Bus1=3252 Bus2=3285 phases=3 Linecode=4c_.5 Length=54.28143 Units=m
New Line.LINE3Cmpd_7 Bus1=11 Bus2=343 phases=3 Linecode=3c_300_SAC_XC Length=29.944417 Units=m
New Line.LINE3Cmpd_8 Bus1=343 Bus2=348 phases=3 Linecode=4c_300_SAC Length=5.42745 Units=m
New Line.LINE3Cmpd_9 Bus1=3285 Bus2=3292 phases=3 Linecode=95_SAC_XC Length=1.68297 Units=m
New Line.LINE484 Bus1=483 Bus2=485 phases=3 Linecode=3c_300_ASN Length=1.658 Units=m
New Line.LINE4168 Bus1=4165 Bus2=4169 phases=3 Linecode=25_SAC_XC Length=5.6614 Units=m
New Line.LINE4184 Bus1=4179 Bus2=4185 phases=3 Linecode=25_SAC_XC Length=21.259 Units=m
New Line.LINE4263 Bus1=4256 Bus2=4264 phases=3 Linecode=4c_.5 Length=1.7656 Units=m
New Line.LINE4272 Bus1=4264 Bus2=4273 phases=3 Linecode=25_SAC_XC Length=9.6855 Units=m
New Line.LINE4288 Bus1=4280 Bus2=4289 phases=3 Linecode=25_SAC_XC Length=7.0918 Units=m
New Line.LINE4494 Bus1=4490 Bus2=4495 phases=3 Linecode=25_SAC_XC Length=6.3095 Units=m
New Line.LINE4495 Bus1=4490 Bus2=4496 phases=3 Linecode=25_SAC_XC Length=7.2825 Units=m
New Line.LINE4496 Bus1=4490 Bus2=4497 phases=3 Linecode=25_SAC_XC Length=7.2825 Units=m
New Line.LINE4Cmpd_0 Bus1=444 Bus2=483 phases=3 Linecode=3c_300_ASN Length=60.759893 Units=m
New Line.LINE4Cmpd_1 Bus1=4166 Bus2=4256 phases=3 Linecode=4c_.5 Length=33.41389 Units=m
New Line.LINE4Cmpd_2 Bus1=4223 Bus2=4403 phases=3 Linecode=4c_.25 Length=74.594511 Units=m
New Line.LINE4Cmpd_3 Bus1=483 Bus2=4166 phases=3 Linecode=3c_300_ASN Length=7.669728 Units=m
New Line.LINE4Cmpd_4 Bus1=485 Bus2=4165 phases=3 Linecode=3c_300_ASN Length=49.43965 Units=m
New Line.LINE4Cmpd_5 Bus1=433 Bus2=444 phases=3 Linecode=4c_.5_SAC Length=7.23063 Units=m
New Line.LINE4Cmpd_6 Bus1=4165 Bus2=4223 phases=3 Linecode=3c_300_ASN Length=14.885431 Units=m
New Line.LINE4Cmpd_7 Bus1=485 Bus2=4179 phases=3 Linecode=3c_95_SAC_XC Length=31.123422 Units=m
New Line.LINE4Cmpd_8 Bus1=4403 Bus2=4462 phases=3 Linecode=4c_.3 Length=6.080458 Units=m
New Line.LINE4Cmpd_9 Bus1=11 Bus2=433 phases=3 Linecode=3c_300_SAC_XC Length=29.099167 Units=m
New Line.LINE4Cmpd_10 Bus1=4462 Bus2=4490 phases=3 Linecode=4c_.06 Length=0.718127 Units=m
New Line.LINE4Cmpd_11 Bus1=4256 Bus2=4280 phases=3 Linecode=4c_.5 Length=20.9681 Units=m
New Line.LINE5116 Bus1=5114 Bus2=5117 phases=3 Linecode=3c_300_SAC_ASN Length=9.9833 Units=m
New Line.LINE5145 Bus1=5145 Bus2=5146 phases=3 Linecode=4c_300_SAC Length=0.51185 Units=m
New Line.LINE5265 Bus1=5261 Bus2=5266 phases=3 Linecode=185_SAC_PC Length=0.945 Units=m
New Line.LINE5270 Bus1=5266 Bus2=5271 phases=3 Linecode=25_SAC_XC Length=22.0878 Units=m
New Line.LINE5271 Bus1=5266 Bus2=5272 phases=3 Linecode=25_SAC_XC Length=17.8821 Units=m
New Line.LINE5272 Bus1=5266 Bus2=5273 phases=3 Linecode=25_SAC_XC Length=17.8821 Units=m
New Line.LINE5273 Bus1=5266 Bus2=5274 phases=3 Linecode=25_SAC_XC Length=17.8821 Units=m
New Line.LINE5274 Bus1=5266 Bus2=5275 phases=3 Linecode=25_SAC_XC Length=17.8821 Units=m
New Line.LINE5275 Bus1=5266 Bus2=5276 phases=3 Linecode=25_SAC_XC Length=17.8821 Units=m
New Line.LINE5297 Bus1=5293 Bus2=5298 phases=3 Linecode=25_SAC_XC Length=16.7103 Units=m
New Line.LINE5298 Bus1=5293 Bus2=5299 phases=3 Linecode=25_SAC_XC Length=16.7103 Units=m
New Line.LINE5299 Bus1=5293 Bus2=5300 phases=3 Linecode=25_SAC_XC Length=16.7103 Units=m
New Line.LINE5300 Bus1=5293 Bus2=5301 phases=3 Linecode=25_SAC_XC Length=16.7103 Units=m
New Line.LINE5311 Bus1=5307 Bus2=5312 phases=3 Linecode=25_SAC_XC Length=7.4638 Units=m
New Line.LINE5Cmpd_0 Bus1=5117 Bus2=5145 phases=3 Linecode=4c_.5 Length=57.66968 Units=m
New Line.LINE5Cmpd_1 Bus1=548 Bus2=5114 phases=3 Linecode=4c_.5 Length=50.37689 Units=m
New Line.LINE5Cmpd_2 Bus1=5146 Bus2=5212 phases=3 Linecode=4c_120_SAC Length=3.053366 Units=m
New Line.LINE5Cmpd_3 Bus1=11 Bus2=529 phases=3 Linecode=3c_300_SAC_XC Length=31.403685 Units=m
New Line.LINE5Cmpd_4 Bus1=5212 Bus2=5261 phases=3 Linecode=4c_.12 Length=19.459 Units=m
New Line.LINE5Cmpd_5 Bus1=529 Bus2=548 phases=3 Linecode=4c_300_SAC Length=6.206393 Units=m
New Line.LINE5Cmpd_6 Bus1=5261 Bus2=5293 phases=3 Linecode=4c_.12 Length=25.16154 Units=m
New Line.LINE5Cmpd_7 Bus1=5293 Bus2=5307 phases=3 Linecode=4c_.12 Length=14.944 Units=m
New Line.LINE663 Bus1=663 Bus2=664 phases=3 Linecode=25_SAC_XC Length=7.0492 Units=m
New Line.LINE6Cmpd_0 Bus1=6227 Bus2=6286 phases=3 Linecode=3c_.06 Length=17.780656 Units=m
New Line.LINE6Cmpd_1 Bus1=6216 Bus2=6227 phases=3 Linecode=4c_.25 Length=21.86348 Units=m
New Line.LINE6Cmpd_2 Bus1=6429 Bus2=6459 phases=3 Linecode=4_PSC Length=6.657766 Units=m
New Line.LINE6Cmpd_3 Bus1=6338 Bus2=6442 phases=3 Linecode=2c_.007 Length=15.089282 Units=m
New Line.LINE6Cmpd_4 Bus1=11 Bus2=627 phases=3 Linecode=3c_300_SAC_XC Length=31.928292 Units=m
New Line.LINE6Cmpd_5 Bus1=633 Bus2=663 phases=3 Linecode=4c_.5 Length=57.116215 Units=m
New Line.LINE6Cmpd_6 Bus1=663 Bus2=6187 phases=3 Linecode=4c_.5 Length=101.215303 Units=m
New Line.LINE6Cmpd_7 Bus1=6301 Bus2=6387 phases=3 Linecode=4c_.25 Length=34.04433 Units=m
New Line.LINE6Cmpd_8 Bus1=6227 Bus2=6295 phases=3 Linecode=4c_.25 Length=14.168687 Units=m
New Line.LINE6Cmpd_9 Bus1=627 Bus2=633 phases=3 Linecode=4c_300_SAC Length=5.95843 Units=m
New Line.LINE6Cmpd_10 Bus1=6295 Bus2=6338 phases=3 Linecode=3c_300_ASN Length=3.130674 Units=m
New Line.LINE6Cmpd_11 Bus1=6387 Bus2=6429 phases=3 Linecode=4c_300 Length=3.23501 Units=m
New Line.LINE6Cmpd_12 Bus1=6194 Bus2=6216 phases=3 Linecode=4c_.5 Length=7.11228 Units=m
New Line.LINE6Cmpd_13 Bus1=6301 Bus2=6367 phases=3 Linecode=25_SAC_XC Length=10.65744 Units=m
New Line.LINE6Cmpd_14 Bus1=6187 Bus2=6194 phases=3 Linecode=4c_.25 Length=2.60001 Units=m
New Line.LINE6Cmpd_15 Bus1=6295 Bus2=6301 phases=3 Linecode=4c_.25 Length=4.5553 Units=m
